19

C      2.751619    1.715466    0.151996
C      2.439378    0.553202    0.011816
C      2.038325   -0.848588   -0.151065
C      0.662522   -1.057896    0.496518
C     -0.348241   -0.150759   -0.183133
N     -1.655707   -0.305172    0.384076
C     -2.506552    0.776703   -0.094258
H      3.020073    2.738288    0.292786
H      2.780097   -1.544144    0.252769
H      1.962709   -1.073325   -1.241581
H      0.374844   -2.104463    0.435067
H      0.729282   -0.759934    1.561993
H     -0.444504   -0.515514   -1.247606
H     -0.011136    0.881061   -0.244433
H     -1.614052   -0.296351    1.433185
H     -2.082419   -1.221238    0.111615
H     -3.502736    0.415463   -0.410174
H     -2.007502    1.282648   -0.966099
H     -2.585998    1.514554    0.736137
