19

 C    9.99107170   7.81121660   7.16364177
 C    9.09400807   7.35389943   6.48803389
 C    7.96058267   6.80476725   5.76419886
 C    6.63816510   7.57747395   5.99540307
 C    6.54745683   8.30552501   7.32656800
 N    6.99746894   7.45097560   8.48654735
 C    6.19646185   6.21854497   8.72822711
 H   10.82880653   8.21148282   7.70938183
 H    7.84181548   5.74023715   6.05083243
 H    8.18793218   6.78255820   4.68206036
 H    6.51926278   8.35738890   5.22147008
 H    5.78838294   6.88476141   5.86073337
 H    5.51834638   8.64179501   7.54016444
 H    7.21722264   9.18306727   7.33924926
 H    8.00969391   7.22352298   8.28967507
 H    6.99822850   8.03511088   9.34397831
 H    6.24001509   5.58061219   7.83455941
 H    5.15297449   6.50391709   8.93189840
 H    6.61897942   5.68001878   9.59025248
