37

C 2.994489 1.041869 -0.888288
C 2.098024 1.044508 -1.704775
C 0.965252 0.998474 -2.612985
C -0.357508 1.507196 -1.987825
C -0.449356 1.359431 -0.477853
N 0.0 0.0 0.0
C -0.800906 -1.154422 -0.494739
H 3.831734 1.065212 -0.211293
H 0.846516 -0.042652 -2.975541
H 1.193399 1.589337 -3.519647
H -0.47602 2.587519 -2.188412
H -1.207035 1.010724 -2.489757
H -1.478698 1.517311 -0.112754
H 0.220203 2.077378 0.027194
H 1.01242 -0.077361 -0.290023
H -0.756554 -1.17849 -1.592442
H -1.844606 -1.033015 -0.16651
H -0.378898 -2.084918 -0.085219
C -1.586632 -2.144153 3.976616
C -0.464976 -2.265924 4.420874
C 0.910108 -2.34207 4.882917
C 1.939278 -2.56432 3.746814
C 1.509146 -2.046219 2.384154
N 0.923454 -0.656668 2.450718
C 1.845271 0.40899 2.933974
H -2.604931 -2.076163 3.632681
H 1.145685 -1.414086 5.442237
H 1.005816 -3.153505 5.628316
H 2.119248 -3.646126 3.610121
H 2.909243 -2.131639 4.050246
H 2.35154 -2.018804 1.671841
H 0.70723 -2.67614 1.961117
H 0.071284 -0.7421 3.068456
H 2.17903 0.161339 3.951211
H 2.713767 0.463938 2.259823
H 1.308649 1.370023 2.942511
H -0.0 -0.0 1.037498
